@<TRIPOS>MOLECULE
ZINC000000537822
  50   52    0    0    0
SMALL
USER_CHARGES
NO_NAME
@<TRIPOS>ATOM
    1 O1        0.0021    -0.0041     0.0020 O.2    1 <0>      -0.4500
    2 C2       -0.0144     1.2085     0.0087 C.2    1 <0>       0.4000
    3 C3        1.2803     1.9797     0.0005 C.3    1 <0>      -0.1700
    4 C4        2.4566     1.0014    -0.0160 C.3    1 <0>      -0.1400
    5 C5        3.7710     1.7844    -0.0244 C.3    1 <0>      -0.0100
    6 N6        4.9004     0.8451    -0.0402 N.4    1 <0>      -0.3800
    7 H7        4.8166     0.2068     0.7368 H      1 <0>       0.4200
    8 C8        6.1582     1.5926     0.0761 C.3    1 <0>       0.0000
    9 C9        7.3331     0.6144     0.1416 C.3    1 <0>      -0.1300
   10 C10       7.3569    -0.2326    -1.1340 C.3    1 <0>       0.1700
   11 O11       7.5761     0.6129    -2.2650 O.3    1 <0>      -0.5500
   12 C12       8.4650    -1.2498    -1.0430 C.ar   1 <0>      -0.1300
   13 C13       8.8443    -1.7499     0.1887 C.ar   1 <0>      -0.1000
   14 C14       9.8606    -2.6829     0.2729 C.ar   1 <0>      -0.1000
   15 C15      10.4983    -3.1163    -0.8759 C.ar   1 <0>      -0.0200
   16 Cl16     11.7745    -4.2885    -0.7710 Cl     1 <0>      -0.0500
   17 C17      10.1182    -2.6154    -2.1083 C.ar   1 <0>      -0.1000
   18 C18       9.0980    -1.6867    -2.1917 C.ar   1 <0>      -0.0900
   19 C19       6.0121    -0.9498    -1.2839 C.3    1 <0>      -0.1700
   20 C20       4.8872     0.0876    -1.2974 C.3    1 <0>      -0.0100
   21 C21      -1.2974     1.9262     0.0187 C.ar   1 <0>      -0.2000
   22 C22      -1.3199     3.3255     0.0206 C.ar   1 <0>      -0.0400
   23 C23      -2.5255     3.9917     0.0300 C.ar   1 <0>      -0.1700
   24 C24      -3.7154     3.2788     0.0380 C.ar   1 <0>       0.1400
   25 F25      -4.8945     3.9384     0.0477 F      1 <0>      -0.1300
   26 C26      -3.7002     1.8917     0.0357 C.ar   1 <0>      -0.1600
   27 C27      -2.5015     1.2132     0.0205 C.ar   1 <0>      -0.0300
   28 H28       1.3211     2.6119    -0.8866 H      1 <0>       0.1100
   29 H29       1.3381     2.6023     0.8933 H      1 <0>       0.1100
   30 H30       2.4158     0.3693     0.8710 H      1 <0>       0.0900
   31 H31       2.3988     0.3788    -0.9088 H      1 <0>       0.0900
   32 H32       3.8118     2.4165    -0.9114 H      1 <0>       0.1300
   33 H33       3.8288     2.4070     0.8685 H      1 <0>       0.1300
   34 H34       6.2754     2.2428    -0.7909 H      1 <0>       0.1400
   35 H35       6.1385     2.1973     0.9827 H      1 <0>       0.1300
   36 H36       8.2662     1.1714     0.2261 H      1 <0>       0.1200
   37 H37       7.2171    -0.0362     1.0084 H      1 <0>       0.1000
   38 H38       7.6029     0.1417    -3.1090 H      1 <0>       0.3900
   39 H39       8.3467    -1.4113     1.0855 H      1 <0>       0.1300
   40 H40      10.1571    -3.0732     1.2352 H      1 <0>       0.1400
   41 H41      10.6159    -2.9531    -3.0053 H      1 <0>       0.1400
   42 H42       8.8010    -1.2959    -3.1537 H      1 <0>       0.1300
   43 H43       6.0010    -1.5109    -2.2183 H      1 <0>       0.1200
   44 H44       5.8687    -1.6329    -0.4467 H      1 <0>       0.1000
   45 H45       3.9279    -0.4188    -1.4041 H      1 <0>       0.1300
   46 H46       5.0324     0.7694    -2.1353 H      1 <0>       0.1400
   47 H47      -0.3942     3.8817     0.0151 H      1 <0>       0.1400
   48 H48      -2.5443     5.0716     0.0315 H      1 <0>       0.1500
   49 H49      -4.6301     1.3426     0.0420 H      1 <0>       0.1500
   50 H50      -2.4909     0.1332     0.0184 H      1 <0>       0.1500
@<TRIPOS>BOND
   1    1    2 2
   2    2    3 1
   3    2   21 1
   4    3    4 1
   5    3   28 1
   6    3   29 1
   7    4    5 1
   8    4   30 1
   9    4   31 1
  10    5    6 1
  11    5   32 1
  12    5   33 1
  13    6    7 1
  14    6   20 1
  15    6    8 1
  16    8    9 1
  17    8   34 1
  18    8   35 1
  19    9   10 1
  20    9   36 1
  21    9   37 1
  22   10   11 1
  23   10   12 1
  24   10   19 1
  25   11   38 1
  26   12   18 ar
  27   12   13 ar
  28   13   14 ar
  29   13   39 1
  30   14   15 ar
  31   14   40 1
  32   15   16 1
  33   15   17 ar
  34   17   18 ar
  35   17   41 1
  36   18   42 1
  37   19   20 1
  38   19   43 1
  39   19   44 1
  40   20   45 1
  41   20   46 1
  42   21   27 ar
  43   21   22 ar
  44   22   23 ar
  45   22   47 1
  46   23   24 ar
  47   23   48 1
  48   24   25 1
  49   24   26 ar
  50   26   27 ar
  51   26   49 1
  52   27   50 1
