@<TRIPOS>MOLECULE
ZINC000022011749
28    29    1     0     0
SMALL
USER_CHARGES
@<TRIPOS>ATOM
1      C1     -0.0187    1.5258    0.0104 C.3      1 ZINC000022011749   -0.1800
2      C2      0.0021   -0.0041    0.0020 C.3      1 ZINC000022011749   -0.0600
3      H3      0.4318   -0.3608   -0.9340 H        1 ZINC000022011749    0.1300
4      C4     -1.4246   -0.5412    0.1537 C.3      1 ZINC000022011749   -0.0100
5      N5     -2.2184    0.3220    1.0098 N.4      1 ZINC000022011749   -0.5000
6      H6     -2.1295    1.2691    0.6734 H        1 ZINC000022011749    0.4200
7      H7     -3.1858    0.0479    0.9254 H        1 ZINC000022011749    0.4300
8      C8     -1.8656    0.3044    2.4181 C.3      1 ZINC000022011749   -0.0100
9      C9     -0.5153    0.9878    2.6558 C.3      1 ZINC000022011749   -0.1200
10     C10     0.5788   -0.0372    2.4350 C.ar     1 ZINC000022011749   -0.1000
11     C11     1.3236   -0.4904    3.5075 C.ar     1 ZINC000022011749   -0.0900
12     C12     2.3209   -1.4265    3.3000 C.ar     1 ZINC000022011749   -0.1000
13     C13     2.5692   -1.9038    2.0256 C.ar     1 ZINC000022011749   -0.0300
14     Cl14    3.8209   -3.0788    1.7683 Cl       1 ZINC000022011749   -0.0500
15     C15     1.8199   -1.4455    0.9550 C.ar     1 ZINC000022011749   -0.1000
16     C16     0.8258   -0.5106    1.1686 C.ar     1 ZINC000022011749   -0.0900
17     H17     0.9151    1.8995    0.4305 H        1 ZINC000022011749    0.0900
18     H18    -0.1310    1.8932   -1.0096 H        1 ZINC000022011749    0.0900
19     H19    -0.8549    1.8745    0.6164 H        1 ZINC000022011749    0.0600
20     H20    -1.8920   -0.5979   -0.8294 H        1 ZINC000022011749    0.1400
21     H21    -1.3866   -1.5398    0.5890 H        1 ZINC000022011749    0.1300
22     H22    -2.6356    0.8263    2.9863 H        1 ZINC000022011749    0.1400
23     H23    -1.8087   -0.7290    2.7598 H        1 ZINC000022011749    0.1300
24     H24    -0.3926    1.8135    1.9549 H        1 ZINC000022011749    0.1200
25     H25    -0.4675    1.3623    3.6783 H        1 ZINC000022011749    0.1200
26     H26     1.1284   -0.1157    4.5015 H        1 ZINC000022011749    0.1400
27     H27     2.9065   -1.7847    4.1338 H        1 ZINC000022011749    0.1400
28     H28     2.0119   -1.8162   -0.0411 H        1 ZINC000022011749    0.1400
@<TRIPOS>BOND
1     1     2     1
2     1     17    1
3     1     18    1
4     1     19    1
5     2     3     1
6     2     16    1
7     2     4     1
8     4     5     1
9     4     20    1
10    4     21    1
11    5     6     1
12    5     7     1
13    5     8     1
14    8     9     1
15    8     22    1
16    8     23    1
17    9     10    1
18    9     24    1
19    9     25    1
20    10    16    ar
21    10    11    ar
22    11    12    ar
23    11    26    1
24    12    13    ar
25    12    27    1
26    13    14    1
27    13    15    ar
28    15    16    ar
29    15    28    1
@<TRIPOS>SUBSTRUCTURE
1   ZINC000022011749 1     RESIDUE    1   A     ZIN   1
