@<TRIPOS>MOLECULE
ZINC000116262036
  58   62    0    0    0
SMALL
USER_CHARGES
NO_NAME
@<TRIPOS>ATOM
    1 C1       -0.0178     1.4608     0.0101 C.3    1 <0>       0.1000
    2 N2        0.0021    -0.0041     0.0020 N.pl3  1 <0>      -0.6400
    3 C3        0.0063    -0.7513    -1.2676 C.3    1 <0>       0.1200
    4 C4       -1.0902    -1.8262    -1.2896 C.3    1 <0>       0.1300
    5 N5       -1.0227    -2.5892    -0.0392 N.pl3  1 <0>      -0.6300
    6 C6       -0.5146    -2.0230     1.1286 C.ar   1 <0>       0.1300
    7 C7       -0.5932    -2.8631     2.2265 C.ar   1 <0>      -0.1600
    8 C8       -0.1129    -2.4396     3.4533 C.ar   1 <0>      -0.1000
    9 C9        0.4244    -1.1574     3.5220 C.ar   1 <0>      -0.1200
   10 C10       0.4881    -0.3123     2.4228 C.ar   1 <0>      -0.1300
   11 C11       0.0232    -0.7254     1.1977 C.ar   1 <0>       0.1600
   12 C12      -1.2521    -4.1163     1.7575 C.3    1 <0>      -0.0600
   13 H13      -2.2618    -4.0818     2.1667 H      1 <0>       0.1200
   14 C14      -0.6409    -5.3776     2.2779 C.3    1 <0>       0.0100
   15 N15       0.3442    -5.9691     1.3734 N.4    1 <0>      -0.3800
   16 H16       1.1121    -5.3286     1.2387 H      1 <0>       0.4300
   17 C17       0.8424    -7.2307     1.9375 C.3    1 <0>      -0.0100
   18 C18       1.9605    -7.7801     1.0493 C.3    1 <0>      -0.1400
   19 C19       2.4795    -9.0940     1.6369 C.3    1 <0>      -0.1600
   20 C20       3.5808    -9.6352     0.7620 C.2    1 <0>       0.4000
   21 O21       3.9175    -9.0296    -0.2333 O.2    1 <0>      -0.4500
   22 C22       4.2470   -10.8972     1.1152 C.ar   1 <0>      -0.2000
   23 C23       3.8570   -11.6014     2.2599 C.ar   1 <0>      -0.0400
   24 C24       4.4851   -12.7836     2.5848 C.ar   1 <0>      -0.1700
   25 C25       5.5024   -13.2760     1.7805 C.ar   1 <0>       0.1400
   26 F26       6.1143   -14.4360     2.1048 F      1 <0>      -0.1300
   27 C27       5.8938   -12.5828     0.6444 C.ar   1 <0>      -0.1700
   28 C28       5.2701   -11.4025     0.3050 C.ar   1 <0>      -0.0300
   29 C29      -0.3218    -6.2265     0.0855 C.3    1 <0>       0.0000
   30 C30      -0.5767    -4.8865    -0.5916 C.3    1 <0>      -0.1600
   31 C31      -1.4164    -3.9750     0.2511 C.3    1 <0>       0.1700
   32 H32      -2.4695    -4.1205     0.0104 H      1 <0>       0.0900
   33 H33       1.0048     1.8381     0.0023 H      1 <0>       0.0500
   34 H34      -0.5450     1.8219    -0.8730 H      1 <0>       0.0700
   35 H35      -0.5280     1.8123     0.9069 H      1 <0>       0.0700
   36 H36      -0.1592    -0.0563    -2.0908 H      1 <0>       0.1000
   37 H37       0.9772    -1.2298    -1.3964 H      1 <0>       0.0600
   38 H38      -2.0671    -1.3506    -1.3758 H      1 <0>       0.0700
   39 H39      -0.9301    -2.4950    -2.1354 H      1 <0>       0.0900
   40 H40      -0.1536    -3.0786     4.3231 H      1 <0>       0.1300
   41 H41       0.8068    -0.8058     4.4689 H      1 <0>       0.1200
   42 H42       0.9099     0.6761     2.5298 H      1 <0>       0.1300
   43 H43      -0.1551    -5.1625     3.2296 H      1 <0>       0.1300
   44 H44      -1.4349    -6.1038     2.4515 H      1 <0>       0.1300
   45 H45       1.2298    -7.0523     2.9406 H      1 <0>       0.1300
   46 H46       0.0282    -7.9538     1.9857 H      1 <0>       0.1300
   47 H47       1.5732    -7.9585     0.0462 H      1 <0>       0.0900
   48 H48       2.7747    -7.0570     1.0011 H      1 <0>       0.0900
   49 H49       2.8668    -8.9156     2.6400 H      1 <0>       0.1100
   50 H50       1.6653    -9.8171     1.6851 H      1 <0>       0.1100
   51 H51       3.0656   -11.2188     2.8873 H      1 <0>       0.1400
   52 H52       4.1850   -13.3280     3.4680 H      1 <0>       0.1500
   53 H53       6.6865   -12.9716     0.0225 H      1 <0>       0.1500
   54 H54       5.5758   -10.8638    -0.5797 H      1 <0>       0.1500
   55 H55       0.3209    -6.8411    -0.5448 H      1 <0>       0.1400
   56 H56      -1.2688    -6.7385     0.2567 H      1 <0>       0.1300
   57 H57       0.3797    -4.3998    -0.7825 H      1 <0>       0.0900
   58 H58      -1.0778    -5.0617    -1.5436 H      1 <0>       0.1100
@<TRIPOS>BOND
   1    1    2 1
   2    1   33 1
   3    1   34 1
   4    1   35 1
   5    2   11 1
   6    2    3 1
   7    3    4 1
   8    3   36 1
   9    3   37 1
  10    4    5 1
  11    4   38 1
  12    4   39 1
  13    5   31 1
  14    5    6 1
  15    6   11 ar
  16    6    7 ar
  17    7    8 ar
  18    7   12 1
  19    8    9 ar
  20    8   40 1
  21    9   10 ar
  22    9   41 1
  23   10   11 ar
  24   10   42 1
  25   12   13 1
  26   12   31 1
  27   12   14 1
  28   14   15 1
  29   14   43 1
  30   14   44 1
  31   15   16 1
  32   15   17 1
  33   15   29 1
  34   17   18 1
  35   17   45 1
  36   17   46 1
  37   18   19 1
  38   18   47 1
  39   18   48 1
  40   19   20 1
  41   19   49 1
  42   19   50 1
  43   20   21 2
  44   20   22 1
  45   22   28 ar
  46   22   23 ar
  47   23   24 ar
  48   23   51 1
  49   24   25 ar
  50   24   52 1
  51   25   26 1
  52   25   27 ar
  53   27   28 ar
  54   27   53 1
  55   28   54 1
  56   29   30 1
  57   29   55 1
  58   29   56 1
  59   30   31 1
  60   30   57 1
  61   30   58 1
  62   31   32 1
