@<TRIPOS>MOLECULE
ZINC000053151228
  54   57    0    0    0
SMALL
USER_CHARGES
NO_NAME
@<TRIPOS>ATOM
    1 C1       -0.0187     1.5258     0.0104 C.3    1 <0>      -0.1600
    2 C2        0.0021    -0.0041     0.0020 C.3    1 <0>      -0.1300
    3 C3        0.7182    -0.4975    -1.2568 C.3    1 <0>       0.1400
    4 H4        1.7103    -0.0491    -1.3098 H      1 <0>       0.1100
    5 C5        0.8493    -2.0210    -1.2049 C.3    1 <0>       0.0600
    6 O6       -0.4420    -2.6041    -1.0184 O.3    1 <0>      -0.5700
    7 N7       -0.0549    -0.1139    -2.4405 N.am   1 <0>      -0.6900
    8 C8        0.5610     0.0279    -3.6309 C.2    1 <0>       0.5200
    9 O9        1.7554    -0.1622    -3.7221 O.2    1 <0>      -0.5600
   10 C10      -0.2343     0.4225    -4.8486 C.3    1 <0>      -0.1000
   11 H11      -0.7056     1.3913    -4.6827 H      1 <0>       0.1600
   12 C12      -1.2899    -0.6168    -5.1266 C.2    1 <0>      -0.1400
   13 C13      -1.0502    -1.6211    -5.9508 C.2    1 <0>      -0.0500
   14 C14      -2.1176    -2.5978    -6.2417 C.ar   1 <0>      -0.0300
   15 C15      -1.9879    -3.2247    -7.5000 C.ar   1 <0>      -0.1200
   16 C16      -0.9294    -2.9732    -8.4715 C.2    1 <0>      -0.2000
   17 C17      -1.1980    -3.7774    -9.4941 C.2    1 <0>       0.0900
   18 N18      -2.3460    -4.5119    -9.2399 N.pl3  1 <0>      -0.4800
   19 C19      -2.9287    -5.4957   -10.1558 C.3    1 <0>       0.0700
   20 C20      -2.8553    -4.1906    -8.0180 C.ar   1 <0>       0.1100
   21 C21      -3.9427    -4.5633    -7.2291 C.ar   1 <0>      -0.1000
   22 C22      -4.0791    -3.9476    -5.9902 C.ar   1 <0>      -0.1000
   23 C23      -3.2008    -2.9884    -5.4900 C.ar   1 <0>      -0.1000
   24 C24       0.1420    -1.9567    -8.1658 C.3    1 <0>      -0.0400
   25 C25       0.2706    -1.8167    -6.6443 C.3    1 <0>       0.0600
   26 H26       0.6508    -2.7728    -6.2844 H      1 <0>       0.1300
   27 N27       1.2734    -0.8279    -6.2958 N.4    1 <0>      -0.3800
   28 H28       1.7471    -1.1241    -5.4556 H      1 <0>       0.4300
   29 C29       2.2523    -0.7366    -7.3873 C.3    1 <0>      -0.0500
   30 C30       0.6904     0.4981    -6.0697 C.3    1 <0>       0.0100
   31 H31       1.0039     1.9031     0.0027 H      1 <0>       0.0600
   32 H32      -0.5459     1.8868    -0.8726 H      1 <0>       0.0500
   33 H33      -0.5289     1.8773     0.9072 H      1 <0>       0.0600
   34 H34       0.5293    -0.3651     0.8851 H      1 <0>       0.0800
   35 H35      -1.0205    -0.3814     0.0098 H      1 <0>       0.0800
   36 H36       1.2788    -2.3807    -2.1399 H      1 <0>       0.0500
   37 H37       1.4980    -2.3018    -0.3753 H      1 <0>       0.0600
   38 H38      -0.4349    -3.5701    -0.9761 H      1 <0>       0.3900
   39 H39      -1.0102     0.0381    -2.3676 H      1 <0>       0.4100
   40 H40      -2.2539    -0.5397    -4.6458 H      1 <0>       0.1500
   41 H41      -0.6067    -3.8486   -10.3951 H      1 <0>       0.1700
   42 H42      -2.5043    -6.4786    -9.9512 H      1 <0>       0.0800
   43 H43      -4.0088    -5.5295   -10.0135 H      1 <0>       0.0900
   44 H44      -2.7064    -5.2109   -11.1842 H      1 <0>       0.0900
   45 H45      -4.6531    -5.3028    -7.5681 H      1 <0>       0.1400
   46 H46      -4.9203    -4.2314    -5.3753 H      1 <0>       0.1300
   47 H47      -3.3705    -2.5530    -4.5163 H      1 <0>       0.1300
   48 H48       1.0919    -2.2901    -8.5836 H      1 <0>       0.1000
   49 H49      -0.1326    -0.9949    -8.5991 H      1 <0>       0.0900
   50 H50       1.7459    -0.4395    -8.3057 H      1 <0>       0.1300
   51 H51       3.0105     0.0045    -7.1344 H      1 <0>       0.1300
   52 H52       2.7269    -1.7072    -7.5318 H      1 <0>       0.1300
   53 H53       0.1157     0.7994    -6.9455 H      1 <0>       0.1400
   54 H54       1.4853     1.2205    -5.8841 H      1 <0>       0.1500
@<TRIPOS>BOND
   1    1    2 1
   2    1   31 1
   3    1   32 1
   4    1   33 1
   5    2    3 1
   6    2   34 1
   7    2   35 1
   8    3    4 1
   9    3    5 1
  10    3    7 1
  11    5    6 1
  12    5   36 1
  13    5   37 1
  14    6   38 1
  15    7    8 am
  16    7   39 1
  17    8    9 2
  18    8   10 1
  19   10   11 1
  20   10   30 1
  21   10   12 1
  22   12   13 2
  23   12   40 1
  24   13   25 1
  25   13   14 1
  26   14   23 ar
  27   14   15 ar
  28   15   20 ar
  29   15   16 1
  30   16   17 2
  31   16   24 1
  32   17   18 1
  33   17   41 1
  34   18   19 1
  35   18   20 1
  36   19   42 1
  37   19   43 1
  38   19   44 1
  39   20   21 ar
  40   21   22 ar
  41   21   45 1
  42   22   23 ar
  43   22   46 1
  44   23   47 1
  45   24   25 1
  46   24   48 1
  47   24   49 1
  48   25   26 1
  49   25   27 1
  50   27   28 1
  51   27   29 1
  52   27   30 1
  53   29   50 1
  54   29   51 1
  55   29   52 1
  56   30   53 1
  57   30   54 1
