@<TRIPOS>MOLECULE
ZINC000000002001
32    33    1     0     0
SMALL
USER_CHARGES
@<TRIPOS>ATOM
1      C1     -0.0178    1.4648    0.0101 C.3      1 ZINC000000002001   -0.0500
2      N2      0.0021   -0.0041    0.0020 N.4      1 ZINC000000002001   -0.3900
3      H3      0.4901   -0.3383    0.8195 H        1 ZINC000000002001    0.4300
4      C4     -1.3761   -0.5125    0.0124 C.3      1 ZINC000000002001   -0.0500
5      C5      0.6897   -0.4778   -1.2066 C.3      1 ZINC000000002001   -0.0100
6      C6      2.1588   -0.0534   -1.1571 C.3      1 ZINC000000002001   -0.0600
7      C7      2.8641   -0.5394   -2.3969 C.2      1 ZINC000000002001   -0.1900
8      C8      3.5614   -1.6790   -2.5239 C.2      1 ZINC000000002001    0.0800
9      N9      4.0582   -1.7821   -3.7958 N.pl3    1 ZINC000000002001   -0.5900
10     C10     3.6825   -0.6832   -4.5354 C.ar     1 ZINC000000002001    0.1100
11     C11     3.9112   -0.2930   -5.8517 C.ar     1 ZINC000000002001   -0.1300
12     C12     3.3910    0.8938   -6.3192 C.ar     1 ZINC000000002001   -0.0800
13     C13     2.6370    1.7124   -5.4906 C.ar     1 ZINC000000002001   -0.1600
14     C14     2.3964    1.3465   -4.1802 C.ar     1 ZINC000000002001    0.1400
15     O15     1.6577    2.1496   -3.3704 O.3      1 ZINC000000002001   -0.4900
16     C16     2.9135    0.1395   -3.6941 C.ar     1 ZINC000000002001   -0.1200
17     H17     1.0047    1.8421    0.0024 H        1 ZINC000000002001    0.1300
18     H18    -0.5450    1.8259   -0.8730 H        1 ZINC000000002001    0.1200
19     H19    -0.5280    1.8163    0.9069 H        1 ZINC000000002001    0.1200
20     H20    -1.9033   -0.1515   -0.8706 H        1 ZINC000000002001    0.1200
21     H21    -1.3613   -1.6024    0.0064 H        1 ZINC000000002001    0.1200
22     H22    -1.8863   -0.1610    0.9092 H        1 ZINC000000002001    0.1200
23     H23     0.6270   -1.5648   -1.2578 H        1 ZINC000000002001    0.1300
24     H24     0.2158   -0.0447   -2.0875 H        1 ZINC000000002001    0.1200
25     H25     2.2214    1.0336   -1.1059 H        1 ZINC000000002001    0.1000
26     H26     2.6326   -0.4865   -0.2761 H        1 ZINC000000002001    0.0900
27     H27     3.7091   -2.4065   -1.7394 H        1 ZINC000000002001    0.1800
28     H28     4.5951   -2.5193   -4.1263 H        1 ZINC000000002001    0.4300
29     H29     4.4970   -0.9208   -6.5067 H        1 ZINC000000002001    0.1300
30     H30     3.5723    1.1905   -7.3417 H        1 ZINC000000002001    0.1400
31     H31     2.2366    2.6402   -5.8717 H        1 ZINC000000002001    0.1300
32     H32     0.7095    1.9611   -3.3884 H        1 ZINC000000002001    0.3800
@<TRIPOS>BOND
1     1     2     1
2     1     17    1
3     1     18    1
4     1     19    1
5     2     3     1
6     2     4     1
7     2     5     1
8     4     20    1
9     4     21    1
10    4     22    1
11    5     6     1
12    5     23    1
13    5     24    1
14    6     7     1
15    6     25    1
16    6     26    1
17    7     16    1
18    7     8     2
19    8     9     1
20    8     27    1
21    9     10    1
22    9     28    1
23    10    16    ar
24    10    11    ar
25    11    12    ar
26    11    29    1
27    12    13    ar
28    12    30    1
29    13    14    ar
30    13    31    1
31    14    15    1
32    14    16    ar
33    15    32    1
@<TRIPOS>SUBSTRUCTURE
1   ZINC000000002001 1     RESIDUE    1   A     ZIN   1
