@<TRIPOS>MOLECULE
ZINC000000002020
  32   34    0    0    0
SMALL
USER_CHARGES
NO_NAME
@<TRIPOS>ATOM
    1 C1       -0.0241     1.3372     0.2443 C.ar   1 <0>      -0.1300
    2 C2        1.1544     2.0477     0.4572 C.ar   1 <0>      -0.0800
    3 C3        2.3641     1.4226     0.4384 C.ar   1 <0>      -0.1100
    4 C4        2.4307     0.0394     0.2016 C.ar   1 <0>       0.1700
    5 N5        3.6062    -0.5997     0.1783 N.ar   1 <0>      -0.5400
    6 C6        3.6745    -1.8962    -0.0429 C.ar   1 <0>       0.4200
    7 N7        4.9150    -2.5161    -0.0579 N.pl3  1 <0>      -0.6300
    8 C8        6.1556    -1.7256    -0.0596 C.3    1 <0>       0.1000
    9 C9        7.0709    -2.2557     1.0491 C.3    1 <0>      -0.0200
   10 N10       7.2717    -3.6990     0.8684 N.4    1 <0>      -0.5000
   11 H11       7.6318    -3.8738    -0.0578 H      1 <0>       0.4300
   12 H12       7.9324    -4.0338     1.5536 H      1 <0>       0.4300
   13 C13       5.9961    -4.4063     1.0372 C.3    1 <0>      -0.0200
   14 C14       5.0276    -3.9828    -0.0663 C.3    1 <0>       0.1000
   15 C15       2.5222    -2.6649    -0.2631 C.ar   1 <0>      -0.2200
   16 C16       1.2970    -2.0698    -0.2513 C.ar   1 <0>      -0.0100
   17 C17       1.2307    -0.6812    -0.0143 C.ar   1 <0>      -0.1400
   18 C18       0.0018    -0.0049     0.0115 C.ar   1 <0>      -0.0800
   19 H19      -0.9710     1.8559     0.2685 H      1 <0>       0.1300
   20 H20       1.1084     3.1111     0.6397 H      1 <0>       0.1300
   21 H21       3.2690     1.9882     0.6047 H      1 <0>       0.1300
   22 H22       6.6528    -1.8263    -1.0244 H      1 <0>       0.0900
   23 H23       5.9224    -0.6775     0.1279 H      1 <0>       0.1400
   24 H24       8.0332    -1.7460     1.0007 H      1 <0>       0.1400
   25 H25       6.6103    -2.0715     2.0197 H      1 <0>       0.1300
   26 H26       6.1663    -5.4814     0.9801 H      1 <0>       0.1500
   27 H27       5.5680    -4.1571     2.0082 H      1 <0>       0.1300
   28 H28       4.0491    -4.4279     0.1144 H      1 <0>       0.1300
   29 H29       5.4090    -4.3098    -1.0337 H      1 <0>       0.0900
   30 H30       2.6062    -3.7266    -0.4422 H      1 <0>       0.1400
   31 H31       0.3995    -2.6465    -0.4194 H      1 <0>       0.1500
   32 H32      -0.9189    -0.5454    -0.1523 H      1 <0>       0.1300
@<TRIPOS>BOND
   1    1   18 ar
   2    1    2 ar
   3    1   19 1
   4    2    3 ar
   5    2   20 1
   6    3    4 ar
   7    3   21 1
   8    4   17 ar
   9    4    5 ar
  10    5    6 ar
  11    6    7 1
  12    6   15 ar
  13    7   14 1
  14    7    8 1
  15    8    9 1
  16    8   22 1
  17    8   23 1
  18    9   10 1
  19    9   24 1
  20    9   25 1
  21   10   11 1
  22   10   12 1
  23   10   13 1
  24   13   14 1
  25   13   26 1
  26   13   27 1
  27   14   28 1
  28   14   29 1
  29   15   16 ar
  30   15   30 1
  31   16   17 ar
  32   16   31 1
  33   17   18 ar
  34   18   32 1
